**Block file for optimization
*INCLUDE, INPUT=//home/prateek/Documents/GitHub/Large-Scale-Topology-Optimization/MBB/Mesh/mesh.nam
*INCLUDE, INPUT=//home/prateek/Documents/GitHub/Large-Scale-Topology-Optimization/MBB/Mesh/Nfix1.nam
*INCLUDE, INPUT=//home/prateek/Documents/GitHub/Large-Scale-Topology-Optimization/MBB/Mesh/Nfix2.nam
*INCLUDE, INPUT=//home/prateek/Documents/GitHub/Large-Scale-Topology-Optimization/MBB/Mesh/Nload.nam
** Node set Nfix1 has DOF 1(X), DOF 2(Y), DOF 3(Z) fixed
*BOUNDARY
Nfix2,2
Nfix2,3
Nfix2,4
Nfix2,5
Nfix1,1
Nfix1,2
**Add material named EL with elastic properties
*MATERIAL,NAME=EL
*ELASTIC
210e5,0.0

** Apply material EL to element set EALL
*SOLID SECTION, ELSET=EALL, MATERIAL=EL

** Design variable definition
*NSET, NSET=DES
1

*DESIGNVARIABLES, TYPE=COORDINATE
DES

*SOLID SECTION, ELSET=EALL, MATERIAL=EL
*STEP
*STATIC
**Begin setup for static analysis

** Define concentrated load on <nodeset>, <dof>, <magnitude>
*CLOAD
Nload, 3, -4.7619
*END STEP
s

*NODE FILE
 U
***EL FILE
** S, E
*END STEP


*STEP
*SENSITIVITY
*OBJECTIVE
STRAINENERGY
*END STEP
