*HEADING
Cantilever Beam with C3D4 Elements

** Node Definitions
*NODES

*Node
      1, 0.0399999991, 0.0399999991,           1.
      2, 0.0399999991,           0.,           1.
      3, 0.0399999991,           0.,           0.
      4, 0.0399999991, 0.0399999991,           0.
      5,           0.,           0.,           1.
      6,           0.,           0.,           0.
      7,           0., 0.0399999991,           0.
      8,           0., 0.0399999991,           1.
      9, 0.0399999991, 0.0199999996,           1.
     10, 0.0399999991,           0.,  0.899999976
     11, 0.0399999991,           0.,  0.800000012
     12, 0.0399999991,           0.,  0.699999988
     13, 0.0399999991,           0.,  0.600000024
     14, 0.0399999991,           0.,          0.5
     15, 0.0399999991,           0.,  0.400000006
     16, 0.0399999991,           0.,  0.300000012
     17, 0.0399999991,           0.,  0.200000003
     18, 0.0399999991,           0.,  0.100000001
     19, 0.0399999991, 0.0199999996,           0.
     20, 0.0399999991, 0.0399999991,  0.100000001
** ... 82 like lines cut
** Tetrahedral C3D4 Elements
*ELEMENT, TYPE=C3D4, ELSET=BEAM
1,  87,  67,  35,  91
  2,  45,  78,  87,  88
  3,  91,  36,  68,  67
  4,  69,  68,  59,  92
  5,  93,  51,  82,  72
  6,  56,  94,  75,  57
  7,  94,  86,  47,  76
  8,  66,  86,  76,  95
  9,  94,  13,  66,  14
 10,  94,  85,  86,  33
 11,  94,  66,  13,  65
 12,  94,  34,  65,  33
 13,  94,  65,  34,  66
 14,  53,  96,   1,  97
 15,   1,  97,  28,  53
 16,  96,  97,  30,   5
 17,  96,  30,  97,  62
 18,  96,  97,   5,  52
 19,  96,  97,  52,   8
 20,  96,  97,   8,  42
** ... 268 like lines cut
** Material Properties
*MATERIAL, NAME=EL
*ELASTIC
1, 0.3

** Section Assignment
*SOLID SECTION, ELSET=BEAM, MATERIAL=EL
*Nset, nset=FIXED
1,2,5,8,9,29,42,52,81
*Nset, nset=LOADED
3,4,6,7 
** Fix all nodes on the fixed end (x=0)
*BOUNDARY
FIXED, 1, 1
FIXED, 2, 2
FIXED, 3, 3

** Apply Load to all nodes at x=1
*STEP
*STATIC
*CLOAD
LOADED, 2, 1
*END STEP

